Version,
  3.0.0;  !- Version

Timestep,
  4;  !- Number of Timesteps per Hour

SimulationControl,
  Yes,  !- Do Zone Sizing Calculation
  Yes,  !- Do System Sizing Calculation
  Yes,  !- Do Plant Sizing Calculation
  No,   !- Run Simulation for Sizing Periods
  Yes;  !- Run Simulation for Weather File Run Periods

RunPeriod,
  1,                !- Begin Month
  1,                !- Begin Day of Month
  12,               !- End Month
  31,               !- End Day of Month
  Sunday,           !- Day of Week for Start Day
  No,               !- Use Weather File Holidays and Special Days
  No,               !- Use Weather File Daylight Saving Period
  No,               !- Apply Weekend Holiday Rule
  Yes,              !- Use Weather File Rain Indicators
  Yes,              !- Use Weather File Snow Indicators
  1.0000;           !- Number of Times Runperiod to be Done

SurfaceConvectionAlgorithm:Inside,
  Detailed;  !- Algorithm